/*--------------------------------*- C++ -*----------------------------------*\
| =========                 |                                                 |
| \\      /  F ield         | OpenFOAM: The Open Source CFD Toolbox           |
|  \\    /   O peration     | Version:  2.3.0                                 |
|   \\  /    A nd           | Web:      www.OpenFOAM.org                      |
|    \\/     M anipulation  |                                                 |
\*---------------------------------------------------------------------------*/
FoamFile
{
    version     2.0;
    format      ascii;
    class       volScalarField;
    object      p;
}
// * * * * * * * * * * * * * * * * * * * * * * * * * * * * * * * * * * * * * //

dimensions      [1 -1 -2 0 0 0 0];

internalField   uniform 101325;

boundaryField
{

    outlet
    {
        type            totalPressure;
        p0              $internalField;
        U               U;
        phi             phi;
	rho             none;
        psi		thermo:psi;
        gamma           1.0;
	value		uniform 101325;
    }

    inlet
    {
        type            zeroGradient;
    }

    walls
    {
        type            zeroGradient;
    }

    symwall
    {
        type            empty;
    }
 
}

// ************************************************************************* //
